  
       XFOIL         Version 6.99
  
 Calculated polar for: NACA 0012                                       
  
 1 1 Reynolds number fixed          Mach number fixed         
  
 xtrf =   1.000 (top)        1.000 (bottom)  
 Mach =   0.000     Re =     1.000 e 6     Ncrit =   9.000  9.000
  
           alpha                   CL                     CD                     CDp                    CM                   Top_Xtr                Bot_Xtr                Top_Itr                Bot_Itr       
  ---------------------- ---------------------- ---------------------- ---------------------- ---------------------- ---------------------- ---------------------- ---------------------- ----------------------
  -0.400000000000000E+01 -0.411625582655335E+00  0.129150483906617E-01 -0.671358204679582E-03 -0.694471328773812E-02  0.986728745805541E+00  0.376796551587616E-02  0.392901239871378E+01  0.424565654748520E+02
  -0.100000000000000E+01 -0.104876844325521E+00  0.431387186923123E-02 -0.158372557587504E-03 -0.124585065696041E-02  0.901652703454365E+00  0.769402864010204E+00  0.911750234209402E+01  0.682497331415086E+02
   0.000000000000000E+00 -0.934805594152328E-09  0.418712678572524E-02 -0.460348549223233E-04 -0.351676531846209E-09  0.842901689959342E+00  0.842940589150687E+00  0.113695238175958E+02  0.706318255776805E+02
   0.100000000000000E+01  0.104877217537554E+00  0.431386250211533E-02 -0.158280357564846E-03  0.124575953794865E-02  0.769398718994317E+00  0.901643204575408E+00  0.137503938183565E+02  0.728821067672525E+02
   0.300000000000000E+01  0.294453831804274E+00  0.910804500972096E-02 -0.134343881913632E-02  0.806502897400024E-02  0.136725386385409E-01  0.972735385066571E+00  0.380175258728786E+02  0.767944509898938E+02
   0.400000000000000E+01  0.411651554711947E+00  0.129151599864561E-01 -0.670319468249257E-03  0.693880030377879E-02  0.376732544218011E-02  0.986733783049831E+00  0.395435784184988E+02  0.780716452360620E+02
