  
       XFOIL         Version 6.99
  
 Calculated polar for: NACA 0012                                       
  
 1 1 Reynolds number fixed          Mach number fixed         
  
 xtrf =   1.000 (top)        1.000 (bottom)  
 Mach =   0.000     Re =     1.000 e 6     Ncrit =   9.000  9.000
  
   alpha    CL        CD       CDp       CM     Top_Xtr  Bot_Xtr  Top_Itr  Bot_Itr
  ------ -------- --------- --------- -------- -------- -------- -------- --------
  -8.000  -0.9100   0.01211   0.00355   0.0040   1.0000   0.0381   1.0000  96.8261
  -6.000  -0.6948   0.00973   0.00223   0.0043   0.9940   0.0813   1.7234 101.7964
  -4.000  -0.4278   0.00728   0.00118  -0.0060   0.9685   0.2537   3.9091 113.6323
  -2.000  -0.2142   0.00580   0.00064  -0.0030   0.8676   0.4742  10.2391 127.1697
   0.000   0.0000   0.00540   0.00046  -0.0000   0.6870   0.6870  21.0520 139.9493
   2.000   0.2142   0.00580   0.00064   0.0030   0.4742   0.8676  33.8305 150.7609
   4.000   0.4278   0.00728   0.00118   0.0060   0.2537   0.9685  47.3681 157.0913
   6.000   0.6948   0.00973   0.00224  -0.0043   0.0813   0.9940  59.2043 159.2790
   8.000   0.9099   0.01211   0.00356  -0.0039   0.0381   1.0000  64.1734 160.0000
  10.000   1.0809   0.01498   0.00533   0.0053   0.0255   1.0000  66.6154 160.0000
  12.000   1.2454   0.01936   0.00825   0.0133   0.0194   1.0000  68.1980 160.0000
  14.000   1.3501   0.02611   0.01279   0.0267   0.0162   1.0000  69.1662 160.0000
  16.000   1.3877   0.04171   0.02442   0.0302   0.0142   1.0000  69.8189 160.0000
